400
    cell: 10  10  10
H -6.864555422454e-01 -4.390290248757e+00 -3.403841395696e+00
H -1.281240989631e+00  4.528731207859e+00 -2.173372471903e+00
H -1.804476423336e+00 -3.082899377225e-01 -1.131084531775e+00
H -1.528960842291e+00  2.458929016621e+00 -7.780479651724e-01
H -4.055674901203e+00 -1.416627474878e+00 -2.479661249821e+00
H -3.063829665918e+00  2.656541528524e+00 -9.976516518444e-01
H -2.051067284341e+00  7.864422281770e-01 -7.975642329725e-01
H -1.407809846298e+00  3.229650236728e+00 -3.232984258434e+00
H -7.291591226838e-01  1.718205886450e+00 -2.424483647685e+00
H -4.795631704143e+00  3.253420234750e+00  3.673861011147e+00
H -4.314530178615e+00  2.815150399465e+00  4.648804134777e+00
H -1.664923159532e+00  3.376307695750e+00 -3.760942426945e-01
H -5.696601272146e-01  3.452113326276e+00 -1.220188857046e+00
H -3.454908923122e+00 -3.976451158621e+00 -1.558765469928e+00
H  4.394258477493e+00  1.300063858722e+00  1.839221791184e+00
H -4.392898910024e+00  2.204437476955e+00  5.560114586635e-01
H -2.408933346381e+00  2.771860740871e+00 -3.721346541272e+00
H -3.002730037530e+00 -4.923634622989e+00 -3.585734004384e+00
H  4.078362655654e+00  2.631120381465e+00  1.397988479497e+00
H  3.952116778615e+00  4.517157968217e+00  4.577328043651e+00
H  1.272181013793e+00 -3.126779103929e+00 -1.366506814905e+00
H -3.483868034189e+00 -2.689378485592e+00 -7.806008036194e-01
H  1.470104449115e+00  4.386675958540e+00 -5.894592082358e-01
H -3.032394142395e+00  2.407794374360e+00 -2.117797845680e+00
H  4.582175990751e+00 -2.764357536648e+00 -3.840922117081e+00
H  8.282413103689e-01 -2.924814823256e+00 -3.487755805640e+00
H  2.759252352473e+00 -1.802263620388e+00 -3.838020278001e+00
H -2.003681797209e+00 -4.711651860839e+00 -2.324736212585e+00
H  3.359646596792e+00 -2.846804302673e+00 -2.691720391419e+00
H  1.104860550150e+00 -1.689683871767e+00 -3.208187560572e+00
H -1.884935471617e-01 -2.592958112983e+00 -3.611641811601e+00
H -3.202387998450e+00  1.741955803312e+00  1.092165424194e+00
H -1.755434695493e+00  4.610174490243e+00 -3.198676950708e+00
H -1.429560181994e+00  3.533959544373e+00 -4.258580715076e+00
H  3.500405085378e+00  4.488230635579e+00  1.283927092267e+00
H  6.688303120396e-01 -2.749125874392e+00 -2.487970707199e+00
H  2.459750072582e-01 -2.297220030895e+00  1.934600058669e+00
H -2.548055598185e+00 -2.912224430072e+00 -1.558422756255e+00
H -3.016402493638e+00  5.247390567255e-01  1.056911603288e+00
H -3.914813652366e+00  6.822659709035e-01  1.273817941056e-01
H -2.461390558153e+00  1.851957681478e+00 -3.610595217375e-01
H  4.791735811975e+00 -3.575522010532e+00 -3.073510977092e+00
H -4.998825813793e+00  8.957324477546e-01 -1.812511818287e-01
H  3.133720649639e+00  3.364238535445e+00  1.707383038134e+00
H -3.647539497701e+00 -6.152147821625e-01  3.483100489388e+00
H  1.937745160666e+00  4.907304802994e+00 -1.521112663232e+00
H  3.840653718872e+00 -4.071537687837e+00 -2.461818585491e+00
H  3.396144224673e+00  3.527991254397e+00  4.674790042368e+00
H -2.313502366942e+00  1.061030028415e+00 -4.032512224459e+00
H -2.109895595408e+00 -2.312624721000e+00 -2.648747097255e+00
H  4.582777602219e+00  4.642311143625e+00  1.429485278204e+00
H  1.192880437370e+00 -4.159485175916e+00 -1.419269060123e+00
H  3.986435122534e+00  1.565646300855e+00  9.393576354397e-01
H -4.044174368752e+00  2.959079755573e+00 -8.987828916119e-01
H -4.392454021518e+00 -2.885145227559e+00 -2.815492213900e+00
H -4.740179355253e+00  1.966880340297e+00  3.712723049158e+00
H -2.810693350762e-01 -1.718026920158e+00 -2.364791718671e+00
H  4.652209829725e+00 -1.632617299260e+00 -2.046210490414e+00
H -2.462498933269e+00 -1.538634053558e+00 -1.775219688947e+00
H  1.348918358618e+00 -3.479695178375e+00 -2.388155458049e+00
H -3.527116669714e+00 -1.896208409337e+00 -1.475507441048e+00
H  7.335736475996e-02 -4.246256249800e+00 -4.059865372093e+00
H  4.234598006389e+00  3.657938287570e+00  1.671888341802e+00
H -1.513889506490e+00  1.547672781791e+00 -3.210313085218e+00
H -2.289171970337e+00  3.221409478107e+00 -1.363691858540e+00
H -1.560499832767e+00 -3.647965346164e+00 -2.680180970917e+00
H -4.375827121786e+00 -9.026923512697e-01 -3.738262283186e+00
H  2.462901865520e-01  3.759068197594e+00 -4.611559268645e+00
H -4.419278107565e+00 -2.183165147180e+00 -1.999134836637e+00
H -6.780513842823e-01 -3.774531807110e+00 -2.186297679150e+00
H -1.721702580374e-01  1.523595317578e+00 -3.698900067843e+00
H -1.239573585632e+00  1.778329881147e+00  1.085220754499e-01
H  4.805008236087e-03 -3.734872392702e+00  2.891480325795e+00
H  5.330498228949e-01 -4.181882016038e+00 -2.291867082422e+00
H  1.709431424640e+00  3.922309286715e+00 -1.381860280492e+00
H  6.024003415771e-01  2.725100540658e+00  1.151505908909e-01
H  4.570209545095e+00 -2.626385978241e+00 -2.713685087677e+00
H -4.789372075033e+00 -9.628020416306e-01 -1.552834288217e+00
H  4.358456660545e+00  3.843038179818e+00  3.592646766453e+00
H -7.749845585164e-01  2.508300407744e+00 -3.552147781930e+00
H  2.838427409810e+00  3.163812496151e+00  2.783589492729e+00
H -3.343319043037e+00  2.203640606036e+00  1.410056795071e-01
H  4.191596536060e-01  3.514465838760e+00 -3.408660590003e+00
H  2.281865610150e+00  4.426287280246e+00 -3.635856479043e+00
H -4.369630767549e+00  1.795597486691e+00 -5.208919747020e-01
H  1.201565507338e+00  4.233263486180e+00 -2.861428352339e+00
H  1.783132614183e+00 -1.058546781855e+00 -2.318250172833e+00
H -2.332652772491e+00  1.772375291248e+00 -1.409199247795e+00
H  3.516613234456e+00  3.261216101230e+00 -5.658769186394e-02
H  3.836086523577e+00  3.004174280353e+00  2.437412692352e+00
H -5.853261415825e-01  4.304571086180e+00 -3.124205016413e+00
H  4.375703301818e+00  1.993172167936e+00  2.992882975515e+00
H -4.508472903903e+00  3.846142059423e+00 -4.511598372280e+00
H -1.190525641043e+00  4.814674836782e+00 -4.137640712670e+00
H -4.443527796445e-01  3.166591033093e+00 -2.830400644106e+00
H  2.124032892719e+00 -4.229908368458e+00 -2.087297831601e+00
H -1.597759933659e+00 -1.483085790037e+00  1.846256094568e-01
H -1.444566132716e+00 -2.700667510879e+00 -1.748502847062e+00
H  3.184280623122e+00  1.962819986611e+00  2.182051674838e+00
H  1.715295810099e+00 -1.375122322817e+00 -4.406647006709e-01
H -1.141188581390e-01  4.926730172200e+00 -4.890728702887e+00
H  1.109482467698e+00 -4.635937030500e+00 -3.299699683373e+00
H  2.741907469634e+00  4.359842986795e+00  4.860111254718e+00
H  4.858660139615e+00  3.297779705346e+00  9.890922794948e-01
H -2.164070903066e+00 -1.164433083248e+00 -6.877735510104e-01
H -3.669192693531e+00  3.262657829083e+00  1.688743767862e-01
H  2.018685234261e+00  4.889413848463e+00 -4.471210560626e+00
H -4.527558100348e+00  4.907626592489e+00 -7.817069096365e-01
H  2.342871655696e+00 -5.659003532585e-01  1.847313659056e-01
H  3.675732453275e+00  4.728615595830e+00  2.595980641863e+00
H  3.899936695910e+00  4.799064017268e+00 -3.358608841887e+00
H  2.417550762970e+00  1.590507475632e+00  2.689623962149e+00
H  9.434440393986e-03 -8.120923859022e-01 -3.982194255333e+00
H  4.711891658460e+00  3.362423941914e+00  4.881448957124e+00
H  4.086876038626e+00 -3.954369592088e+00 -1.263454203726e+00
H -4.167935940684e+00 -7.437382900775e-01 -2.871404282037e-01
H -4.737984975809e+00 -3.858613109783e+00 -9.867081840791e-01
H  1.524206922382e+00 -2.279641125539e+00  7.617616949505e-01
H  2.523524100155e+00 -2.889882767201e+00 -2.089701138543e+00
H  3.027747413526e+00 -3.257645213633e+00 -1.055126192074e+00
H  5.033469606656e-01 -1.946218533047e+00 -4.115118892702e+00
H  3.059502021946e-01  2.684931686902e+00 -1.826727586715e+00
H -2.541228122574e+00  1.781425440938e+00 -3.288437958968e+00
H  3.062803673002e+00 -3.867664812751e+00 -4.191185350815e-02
H  9.111528752526e-01  2.125643548067e+00 -1.100560272339e+00
H -4.802393860198e+00  1.268346861179e+00  9.529066080139e-01
H -3.931655545282e+00 -1.143201851005e+00  4.961563248917e+00
H -2.730551111441e+00 -3.651721037263e+00 -2.761108587891e+00
H -3.143991083507e+00  1.313865964833e+00 -9.087954519914e-01
H  4.919389024993e+00  3.786625455199e+00 -3.535115783908e+00
H -1.152245340823e+00 -3.822652400561e+00 -1.042604392574e+00
H  4.332553636274e+00  2.317193900053e+00  4.025646746645e+00
H -3.856634806041e+00  4.243165791927e-03  2.545190999591e+00
H  1.948247499252e+00 -3.494046397140e+00 -5.647687870837e-01
H -9.242895683855e-01 -4.408309631810e+00 -4.684730060171e+00
H -8.294965176771e-01 -2.950225479096e+00 -2.849504801149e+00
H -9.500295879524e-01 -3.177211964849e+00 -3.784103314461e+00
H  2.304204213745e+00 -4.403791550414e+00 -3.540947635445e+00
H -4.849850457471e+00 -1.825999850008e+00 -3.195978234616e+00
H -2.377455848794e+00  7.499988461374e-01  2.838703312323e-01
H -2.169601874392e+00 -3.852477573483e+00 -1.786032431986e+00
H  4.120350072574e-01  1.418538134659e+00  2.636009146386e+00
H -4.788288393932e+00  3.889783635632e+00  2.024965986774e-01
H -4.076168456135e+00 -2.737661616386e+00  4.628648816546e+00
H -1.379260395958e+00  6.014478163111e-01 -3.698078212510e+00
H  3.582768485405e+00 -2.123562674483e+00 -1.044025797319e-01
H -2.959946137824e+00  1.832646462374e+00 -4.603366143411e+00
H -4.156169389735e+00  1.528734368412e+00  1.729661804269e+00
H -3.182047557257e+00  4.201436236835e+00  1.127847144873e-01
H  4.959314410666e+00 -5.306265738466e-01  4.260673780380e+00
H  3.130708838840e+00  3.876033317402e-01 -1.061228931644e-01
H  3.752528204491e+00 -3.638244402780e+00 -3.595651894627e+00
H  3.090010418738e+00 -4.460101815370e+00 -1.872919465386e+00
H -1.195467593641e+00  2.405327944723e+00  4.621115593424e+00
H -2.433569894151e+00 -1.132744014464e+00  9.103203475621e-01
H  4.936614999759e+00 -3.800042864635e-01 -4.651718352285e+00
H  2.848784800214e+00 -1.280979630904e+00 -2.520126104435e+00
H -2.671961529842e+00  3.216048506736e+00 -1.429081373881e-01
H -3.118754655841e+00 -6.246829483347e-01 -4.719594975889e+00
H  2.262168747207e+00  2.944055900615e+00  3.713543823095e+00
H -2.246834708434e+00 -4.823865146191e+00 -1.019872005964e+00
H  8.417256273670e-01 -1.514144057028e+00 -2.107765237148e+00
H  4.157452835605e+00 -2.564746937391e+00 -1.572793703018e+00
H -1.703858528859e-02 -3.907804642689e+00  4.003204600775e+00
H -3.749150717856e+00 -4.111055021064e+00 -1.050930353095e-01
H -2.124397067116e+00 -2.789191909917e-01 -3.503679597541e+00
H -1.042397809139e+00 -3.292176807725e+00  3.617985286394e+00
H  9.140196595188e-01 -4.540331336461e+00  3.771161055573e+00
H  1.226000359968e+00 -1.669113522668e+00 -4.894314474392e+00
H -2.974372008153e+00 -4.917055500936e+00 -3.510133095188e-01
H -1.546737755376e+00 -3.927497277332e+00  4.326319210505e+00
H  1.229585453015e+00 -3.419817499118e+00  3.007527361721e+00
H -1.214930041802e+00  2.046257431836e-01  3.635874263192e+00
H  4.571256978134e+00  1.454717472016e+00 -1.216290959161e+00
H -9.162812229484e-01 -1.658539092481e+00 -1.532176079123e+00
H -6.931497196071e-01  2.496368634509e+00 -1.712443089527e+00
H  4.090004866987e+00  3.869472276129e+00 -4.534527414595e+00
H -3.701936131355e+00 -2.261393208399e+00 -3.166661657845e+00
H -2.174697564026e+00 -3.754875072735e+00 -7.684174877359e-01
H -3.592409241754e+00 -3.072437887891e+00 -1.992771701235e+00
H  8.767365783320e-01 -4.782622342155e+00 -4.731504456055e+00
H -1.855381047872e+00  1.969917083213e+00 -4.129902366987e+00
H  1.047662539733e+00 -3.255819532745e+00  1.929712909364e+00
H  2.935964654076e+00 -2.203869448498e+00  1.047510840160e+00
H -4.055376412323e+00  4.724515816119e+00  1.441145189679e-01
H  1.687844382475e+00 -2.281772178920e+00 -3.979085041780e+00
H  3.249855263005e+00 -2.057509805814e+00 -1.182117922670e+00
H -6.136437955573e-01  3.523650541540e+00  4.900769989735e+00
H -4.377533037530e+00 -3.145152242235e+00  1.398826276538e-01
H  4.979911794039e+00 -3.336117278669e+00 -1.961199603368e+00
H  1.798728409235e+00  3.715453530500e+00  4.972510350789e+00
H -4.945279572494e+00 -1.414509243122e+00  4.752703745630e+00
H -3.764231320209e-01 -2.695843500962e+00 -1.723783731240e+00
H -2.030537637527e+00  3.405157725341e+00  7.615684616038e-01
H -3.609902265250e+00  4.224685752954e+00 -9.145224013579e-01
H  2.126489389636e+00  2.853347222614e+00 -4.432587963512e+00
H -1.239589050837e+00  1.232973832713e+00 -1.355542822989e+00
H -2.149863971238e+00 -2.695858519995e+00  4.200859587009e-01
H  2.496451223470e+00 -3.239525967656e+00 -3.321460629110e+00
H  1.624184574151e+00 -2.499439296386e+00 -2.753335900561e+00
H  8.034675202914e-02 -1.347245768524e+00 -4.971674685672e+00
H  4.270369103288e+00  6.213958198450e-02 -3.890804782839e+00
H -4.964809625341e+00 -4.376167153061e+00  2.617262098717e-01
H -4.914166867148e+00  4.215673203234e+00  4.391284454344e+00
H -1.632558441125e+00  4.025101750869e+00  1.486050418375e+00
H -1.856038564547e+00  1.064943974648e+00  1.967965781719e+00
H  2.369124144665e-01  4.223994079364e+00 -2.542792891828e+00
H  1.875669760716e+00  2.546968995899e+00  2.580134057530e+00
H  1.181125079647e-01  1.059243966669e+00 -9.874897499118e-01
H  2.128622932590e+00 -1.428440646864e+00  1.185910630543e+00
H  1.836319088626e-01 -3.818157031756e+00 -1.284127752443e+00
H  9.507680560171e-01  3.269223658166e+00 -2.349105249489e+00
H  1.620891382932e-01  2.593123671639e+00 -3.949557637209e+00
H -1.178849760142e+00  4.979506884175e+00 -1.131426538720e+00
H  1.885884486792e+00  6.470257167709e-01  2.702519608500e+00
H -2.733255326490e+00 -3.891354516012e+00  3.665329858353e+00
H -4.434290945977e+00 -2.098246426648e+00 -4.461036987169e+00
H  2.888100397621e+00  3.939498832398e+00 -1.736543983732e+00
H  4.704196479391e+00 -1.403426194306e+00 -4.046186721705e+00
H  3.969307612483e+00 -1.152235698471e+00  4.492107429350e+00
H  3.396718598984e+00  4.106515597327e+00 -7.140343131676e-01
H -4.426209126490e+00  8.529655451697e-01 -1.156082164226e+00
H -4.976567269607e+00 -4.616799424459e+00 -1.917715019051e+00
H -1.612130950214e+00 -2.464364774886e+00  4.784213988292e+00
H  1.822730015766e+00 -2.540411745402e+00  4.796833159556e+00
H -1.915302662203e+00 -2.327499903603e+00 -5.966216018017e-01
H -4.698182310158e+00 -2.331458480895e+00 -6.977603094253e-01
H -4.513169761321e+00  3.947478826784e-01  1.424924645007e+00
H  2.444588297076e+00  3.613284472601e+00 -2.613187137597e-01
H  3.210911007618e+00 -8.783389436220e-01 -6.775369831329e-01
H -1.257960329866e+00 -3.538211178027e+00  1.232700996255e-01
H  2.296802635001e+00 -2.398715565127e+00 -6.961270640631e-01
H -2.962991407966e+00 -3.267856671719e+00 -4.529838667923e+00
H  3.831496804945e+00 -2.017297158808e+00 -3.738536001738e+00
H -4.134450593879e+00 -1.286015880890e-01 -4.319899801898e+00
H -2.159599678054e-01  2.361292451877e+00 -6.088818979872e-01
H  2.929344413339e+00  2.348734404499e+00 -1.737850024408e+00
H -6.772578254023e-01  1.544760654280e+00  4.009284427506e+00
H -4.496897375301e+00 -3.121606502727e+00 -4.150159365704e+00
H  4.394816512323e+00  1.025660346600e+00  4.569717433814e+00
H -7.522303379417e-01  1.842783228225e-01 -8.543073966747e-01
H -4.899667546672e+00  4.833864844480e+00 -4.642858498851e+00
H -5.772177550334e-01  4.941736207966e-01 -2.521461875969e+00
H -7.515955840497e-01  4.557367635552e+00  2.051812396207e+00
H  1.070553527501e+00  2.624986669727e+00  3.258939409142e+00
H  7.739299382946e-01 -7.746727807511e-03 -1.026503948150e+00
H  9.113871379604e-01  1.145686051922e+00  1.512506622711e+00
H  6.678279072975e-01  2.014105129928e+00  8.818847745897e-01
H  1.644473900219e+00  2.982198842449e+00  2.524137079465e-01
H -2.183813216570e+00 -4.919942241433e+00  6.635612971104e-01
H  1.429096446969e+00  4.360122592515e+00  4.413941324860e+00
H -2.544030977046e+00  2.560163205044e+00  1.461649954603e+00
H -1.084829969572e+00 -9.680367741727e-01 -2.980059298209e+00
H  4.459609256482e+00 -3.586632870088e+00  3.413176921866e+00
H  1.014735104084e+00  2.061470462796e+00  2.101960759719e+00
H -4.278728142048e+00 -4.237931508955e+00  2.721802858300e+00
H  2.217905647052e+00  3.645737861962e+00 -2.719743661427e+00
H -2.159439095595e+00 -1.597971365429e+00 -3.476581585352e+00
H -2.266878267247e+00  2.018480481668e+00  2.548139699198e+00
H  4.168101525100e+00 -1.800844412029e+00  2.280882198634e+00
H  3.894517194841e+00  4.870406856723e+00 -1.882756519695e+00
H -1.952936092574e+00  5.679624841994e-02  9.740859852820e-01
H  4.239003767308e+00  3.910882113980e+00  4.109865068003e-01
H  2.967805666934e+00  7.096113915878e-01  2.157377842146e+00
H -2.171704316020e+00 -3.750905219487e+00  3.893043007110e-01
H  3.254644967870e+00 -4.684346990751e+00  4.316991436915e-01
H  4.618219786234e+00  1.634489793943e-01 -8.136960912483e-01
H  3.631476698503e+00  5.062680068992e-01 -1.295230360893e+00
H -3.828916365277e+00  2.628260001347e+00  1.352221530414e+00
H  1.664742114876e+00 -4.522664568778e+00  2.974205701470e+00
H  3.255343813579e+00 -1.394940811893e+00  1.781993357867e+00
H -9.000499451671e-01  3.070095096124e+00  9.151052425448e-01
H  2.878283251190e+00 -4.273130377733e+00 -4.542114935552e+00
H  3.370710706095e+00 -3.237335947848e+00  2.041451729366e+00
H  4.104774798904e+00 -1.499278056180e+00 -9.755198573724e-01
H  4.304001463272e+00 -2.732540068164e+00  1.790679931165e+00
H  1.991699020997e+00 -3.130719795162e-01  4.645237407404e+00
H -3.226711226169e+00  1.105186542491e-01 -3.574580754932e+00
H  4.344462163539e+00 -2.140666315940e+00  4.934342580700e+00
H -3.197344364395e+00  4.953211757418e+00  1.159796088222e+00
H -4.373487942315e+00  1.808335555766e+00 -1.689172113553e+00
H -3.927467470676e+00  3.808797581957e+00 -3.079211875675e+00
H -1.677301754943e+00  4.114333737530e+00 -1.180491422048e+00
H  1.015507065335e-01 -2.772976508634e+00  6.629385269981e-01
H -2.678135286447e-01  2.673597085619e+00  3.955597208875e+00
H -2.538000888180e+00 -3.790809501230e+00  4.649001108019e+00
H -3.180272253916e+00  3.798556526143e+00  1.377585133659e+00
H  2.451329090337e+00  4.325579591820e+00  1.924343018198e+00
H  9.170978695830e-01  4.480154440952e+00 -4.000316318685e+00
H  3.174226724272e+00  4.540565105132e+00  3.703802277894e+00
H -2.503680395466e+00  2.241885678099e-01  4.019584948570e+00
H  4.343649026677e+00  2.202441223344e+00 -1.974067540342e+00
H -1.443979449906e+00 -2.641872534830e+00  1.256884484031e+00
H  2.687008815531e+00 -2.563424742729e-02 -1.021751697105e+00
H  3.742078539508e+00 -2.907737129324e+00  3.039821795857e+00
H  2.105251213970e+00 -1.611476748043e+00 -1.397351139874e+00
H  4.310849204491e+00  2.817128460679e-01  2.446471181906e+00
H -9.827419424298e-01  6.318588021224e-01  7.125480663058e-01
H -3.414067198396e+00 -1.662549574400e+00  2.127393170732e+00
H  4.930801533494e+00 -3.721352011655e+00  1.995122114007e+00
H  2.810520571104e+00 -3.137129869794e-01 -4.180273781101e+00
H  3.214777495082e+00 -2.948845441860e-01 -2.881597288426e+00
H -3.632265265597e+00 -1.672398557036e+00 -3.147560633921e-01
H  1.750330683101e+00 -4.640315250628e+00 -3.181873490083e-03
H -1.395230012812e+00 -3.466194233895e+00 -4.610808816413e+00
H -1.641842900869e+00  3.374698884817e+00  3.440591544801e+00
H  3.358516694734e+00  1.619102456431e+00 -8.163542642155e-01
H  1.865141340561e+00  5.867642240310e-01  1.630219491561e+00
H -3.049014605025e+00 -3.205578981796e+00  8.266844284657e-02
H  1.924834426009e+00  2.270343931235e+00  1.498414201639e+00
H -4.914982222454e+00  1.413256794167e+00  2.804652781235e+00
H  2.698446631168e+00  4.572908370008e-01 -2.218714430668e+00
H  3.753886343117e+00 -4.602700867736e+00 -5.255582379471e-01
H  1.134614896033e+00 -4.971476940390e+00 -2.167143299973e+00
H  3.719836316707e+00 -4.059806177252e+00  2.669887706573e+00
H -3.049623657578e+00 -4.691853514060e+00 -2.263679888450e+00
H  4.012248255226e+00  3.798333705694e+00 -3.105458673937e+00
H -2.365390846878e-01 -4.853645849612e+00 -1.978436508797e+00
H  3.274012674820e+00 -4.343395478615e+00  3.495223035231e+00
H  3.564466618952e-01 -3.125549940952e+00 -4.913756317803e+00
H  4.933277815103e+00  3.137168510104e+00 -6.073431293558e-01
H -8.884701472146e-01 -3.004807866774e-01  2.649837008936e-01
H -2.421814387821e+00 -3.308869752125e+00  1.528453117990e+00
H  4.368081057364e-01 -1.160638747348e+00  1.492647126696e+00
H  4.469692616199e-01  1.583555088262e+00 -2.275945849944e+00
H -2.741119120128e+00 -1.849508631312e+00  3.107764836675e-01
H  1.008194301096e+00 -7.452170627265e-01 -4.499122969126e+00
H  2.396870035675e-01 -5.386162419113e-01 -1.105276126974e-01
H -1.642387543360e+00  1.271456115630e+00  4.090213881663e+00
H -4.287778842609e+00 -1.757887418840e+00  3.941730329698e+00
H  1.430500016266e+00  1.419457017600e+00  3.479089563432e+00
H -4.220577129832e+00 -4.610418639428e+00  1.499285990847e+00
H -3.471184812350e+00  1.114090136354e+00 -2.127631095071e+00
H -2.775266794734e+00 -2.819437878669e+00 -3.579466707779e+00
H  2.067705237803e+00 -1.085784001259e+00 -4.363860258246e+00
H -1.437228978912e+00 -1.430090532379e+00  1.496985047260e+00
H -2.777212305293e-01  1.958069342315e+00 -4.633787103128e+00
H -7.943832826945e-01 -6.037464869554e-01  2.846826870329e+00
H  1.309917239853e+00 -1.217392629976e+00  2.080154111660e+00
H  2.328665138214e+00 -3.053706474926e+00  3.322102123577e+00
H  3.719841367709e+00 -4.444890662737e+00  4.391531516707e+00
H  1.020398701005e+00 -1.789928492767e-01  1.510318441109e+00
H  3.212968443545e+00 -1.799023030976e+00  2.950361042689e+00
H  9.702757615023e-01 -7.201733975033e-01  4.395294775515e+00
H  1.492249630107e+00 -2.101152847720e+00  3.815843652606e+00
H -3.697530927426e+00 -3.886407641486e+00  3.934112305694e+00
H -3.831332443117e+00  4.604389425956e+00  2.170233010626e+00
H -1.002020596958e+00 -1.757237264972e+00 -3.863564093692e+00
H  6.936578477947e-01  4.239127219727e+00 -1.401498790650e+00
H  4.351895850735e-01 -2.751017905025e+00  3.819720672253e+00
H -3.854329395937e+00  3.196790876210e+00 -2.110037124269e+00
H -2.877163985405e-01  8.434398022668e-01  1.660015171569e+00
H  4.486868588746e+00  2.562149484210e+00  2.610291093769e-01
H -3.538282672654e+00  7.708857147447e-01 -4.595260398102e+00
H -4.871875230660e+00  4.478540753408e+00 -2.594088724042e+00
H  3.768354852366e+00  2.852529085913e+00 -9.569165186661e-01
H  3.761093070142e+00 -2.740441349211e+00  4.222314196445e+00
H -1.960538822048e+00  3.123678165811e+00  2.110753123379e+00
H  4.131612451109e+00  1.455370440158e+00 -1.100142308230e-01
H -2.029287720433e+00  7.617479084229e-01  3.228450915477e+00
H  2.476442851211e-01  6.565935914916e-01 -1.943640347239e+00
H -7.397215435552e-01 -2.161435528249e+00  4.496346050281e-01
H  4.574173038733e+00  4.401678694012e+00 -1.264706897781e+00
H -8.093061492007e-01 -1.786282837410e+00  2.663576334582e+00
H -2.868396888212e-01 -4.457871403101e+00 -2.323187592510e-01
H -4.815060159743e+00 -2.619715061743e+00  3.482385820904e+00
H  6.856687805747e-01  5.685965119433e-01  3.660999110853e-01
H  1.882670524365e+00  1.762653831679e+00 -1.563051029195e+00
H -4.532013212537e+00 -4.851040320904e+00 -3.645375901203e+00
H  2.339599937522e+00 -2.931116040150e-01  1.216408720444e+00
H  1.402378349658e+00 -2.369391599856e+00  1.801384369898e+00
H -3.431217406629e+00 -2.510293242189e+00  3.769195354344e+00
H -4.557276514729e+00  4.068537487437e+00  2.677713208474e+00
H -6.872492468271e-01  1.991858354854e+00  9.209801048436e-01
H -4.277090630126e+00  4.339183259209e+00  1.148673502184e+00
H  3.420898756375e-01  5.804218977386e-01 -3.943048510773e+00
H  4.162526972975e+00 -3.300498684657e+00  4.787708286635e-01
H -4.971063336167e+00 -4.656181203261e+00  4.072533425394e+00
H  9.322289080861e-01 -1.441838050789e+00  3.127003724566e+00
H -1.475045927939e+00  3.286684569019e+00 -2.140277506260e+00
H  2.222145800684e+00  2.502364141994e+00 -6.575091839856e-01
H  1.469263858110e+00  8.865633794841e-01 -1.233766791350e+00
H -1.833408904266e+00 -2.060210702943e+00  3.412350916199e+00
H -3.995485485966e+00 -4.677170886180e-02 -2.721486291179e+00
H -4.305185915985e+00  6.014407779150e-01  3.786861355012e+00
H  1.037642961927e+00  2.587188973515e+00 -4.360504190270e+00
H -2.141531011644e+00  4.334585013258e+00 -4.506893669661e+00
H -4.792539748543e+00 -2.836929464769e+00  2.368323628933e+00
H  4.397251546859e+00 -4.189042894387e+00 -4.661497638706e+00
H -3.874002062470e+00  1.762136966041e+00 -3.639604434563e+00
H -2.628640532446e+00 -3.187739666613e+00  2.576305431588e+00
H -3.613362141005e+00  2.805554798557e+00 -3.376780237076e+00
H  4.998376853702e+00 -4.857123113633e-01  2.340837916811e-01
H -2.646950511256e+00  3.932149214301e+00  3.456046822828e+00
H  3.680915554451e-01  3.911760359770e+00  2.836974666533e+00
H -3.507824450815e-01 -2.666699295710e+00  3.192006855413e+00
H -2.502900114165e+00 -5.092327521572e-01 -2.554809712879e+00
H -3.576224212991e+00 -3.977732003261e+00 -3.074110949559e+00
H  1.254403363740e+00  3.220959691687e+00  4.068063688827e+00
H -1.656744855373e+00 -3.002055613392e+00  2.297216607380e+00
