30
    cell: 8.0  8.0  8.0
H  1.077169909511e+00 -1.020988125886e+00 -1.348259447733e+00
H  1.830884592213e-01 -1.557698231574e+00 -1.782405485883e+00
H -2.060346185437e+00  3.927378276290e+00  3.889555115290e+00
H  1.936298049102e+00  7.181973326223e-01  3.715169082037e+00
H -7.514139041700e-01 -4.184139469527e-01 -3.250183630687e+00
H  2.257391305584e+00 -1.126577405146e+00 -2.291542913197e+00
H  1.208868721243e-01 -1.395611520000e+00  2.003709382777e+00
H  3.327427055092e+00 -1.476502868105e+00  3.394023898450e+00
H  2.130927328546e+00 -1.106827632561e+00 -1.972896367169e-01
H  2.117442019559e+00 -1.844743512029e-01  9.301638993772e-01
H -1.459378119580e+00  2.382882188329e+00 -3.788199401470e+00
H  2.432313424884e+00 -1.118537915440e+00 -1.224088264651e+00
H  2.416845366530e+00  1.845499053895e+00  2.906107003288e+00
H  2.515247912050e+00  3.580976978134e-02 -2.445590080636e+00
H  1.113585242376e+00 -2.478011342991e+00 -8.092189527960e-03
H  1.261664073561e+00  1.075432348722e+00 -2.751715752259e+00
H -5.811873476022e-01 -2.429378395199e+00  2.668996832737e+00
H -1.533182296119e+00  2.319699660489e+00  1.762429379767e+00
H  2.639946585704e+00 -7.847515599358e-01  2.251233247739e+00
H -1.927486378623e+00 -1.432729425739e+00 -2.439226375584e+00
H  9.212801355440e-01 -2.427925517025e+00  2.150024430246e+00
H  2.114172305774e+00  9.586575168591e-01 -1.790678078404e+00
H -7.312380271746e-01 -3.366157234697e+00  1.376597954432e-01
H  1.612569300954e+00 -9.233415846164e-01  2.037484769332e+00
H  3.967911812136e+00  2.002508998947e-01  2.659432175592e+00
H  1.188751191387e+00 -5.955638413419e-02 -7.363070447875e-01
H  3.789497702433e+00  1.570674334424e+00  7.265918374820e-01
H  2.786625773109e+00 -1.524167484397e+00  8.358187540631e-01
H -1.629362446504e+00 -1.139061532617e+00 -7.654084051377e-01
H  2.592655226763e+00  3.786335083587e+00 -1.252452130644e+00
